480
Lattice="21.254248  0.000000  0.000000  4.507122 13.235816  0.000000 -0.810058 -1.283932 30.873598" 
 Li 10.659331  9.907497  1.005125
 Li 13.019756 10.252561  2.502654
 Li 15.279477 10.715648  4.157206
 Li 17.546450 11.157400  5.813161
 Li 19.834373 11.590024  7.468171
 Li 22.095980 12.028859  9.129895
 Li 24.374223 12.449480 10.791431
 Li  0.833446 -0.321560 12.371788
 Li  4.627643  4.575870  0.919404
 Li 10.766292  3.634805  2.502329
 Li 10.001098  7.628986  2.545983
 Li  6.934206  4.997237  2.544034
 Li  7.807428  7.202080  1.005678
 Li  8.405777  3.289680  1.004957
 Li  9.238166  5.412794  4.185945
 Li 15.293038  4.539402  5.813109
 Li 14.522170  8.509287  5.816929
 Li 11.501681  5.857939  5.822549
 Li 12.247591  8.072022  4.159931
 Li 13.025875  4.097845  4.157127
 Li 13.772912  6.299561  7.466250
 Li 19.842282  5.410779  9.129878
 Li 19.087995  9.381179  9.102566
 Li 16.037991  6.743063  9.099108
 Li 16.798635  8.946048  7.463456
 Li 17.580888  4.972032  7.468337
 Li 18.343840  7.155081 10.745918
 Li  3.087320  6.296337 12.371213
 Li 23.644728 10.298222 12.529469
 Li 20.649896  7.575424 12.378562
 Li 21.380716  9.826777 10.789387
 Li 22.120575  5.831439 10.791290
 Li  3.894695  2.325870  2.504003
 Li  1.637864  1.852895  0.761340
 Li  8.476829  3.211147  5.825537
 Li  6.188309  2.773846  4.188701
 Li 13.027921  4.084223  9.127892
 Li 10.752813  3.648063  7.470402
 Li 17.468206  4.950901 12.289348
 Li 15.279002  4.522660 10.740297
 Li 24.448903 12.473917  0.911401
 Li  9.187873 11.615312  2.544024
 Li  5.409827 12.940609  2.500115
 Li  6.881267 11.193786  0.919378
 Li  5.553665  0.584134  1.005858
 Li  7.747490  1.010955  2.545703
 Li  3.180139  0.126571  4.160086
 Li 13.755543 12.476064  5.822509
 Li  5.442088  0.566115  5.820682
 Li 11.491837 12.030605  4.185783
 Li  9.994229  1.453983  4.159601
 Li 12.268431  1.891227  5.816896
 Li  7.729104  0.999492  7.474829
 Li 13.784426  0.125100  9.099116
 Li  9.995878  1.440189  9.133472
 Li 16.026843 12.917395  7.466205
 Li 14.544843  2.328238  7.463338
 Li 16.834604  2.763420  9.102532
 Li 12.257038  1.901568 10.784149
 Li 18.396515  0.957612 12.378932
 Li 14.613658  2.241469 12.279270
 Li 16.090472  0.537322 10.745688
 Li 19.127165  3.208962 10.789676
 Li 21.391154  3.680197 12.529932
 Li 18.434614  7.202472  1.005996
 Li  3.156481  6.322570  2.500498
 Li 23.646955 10.252569  2.502886
 Li 20.628265  7.628678  2.546341
 Li 21.286851  9.907429  1.005531
 Li 22.195297  5.855868  0.911658
 Li  3.891297  8.470513  0.761434
 Li  6.148231  8.943604  2.503976
 Li 22.874775  8.071784  4.160179
 Li  7.695616  7.184009  5.820634
 Li  6.919343 11.157251  5.813002
 Li  3.895017  8.509214  5.816944
 Li  4.652426 10.715626  4.157421
 Li  5.433806  6.744541  4.160054
 Li  8.441913  9.391793  4.188809
 Li 10.730382  9.829147  5.825665
 Li  6.171393  8.945940  7.463358
 Li 12.249440  8.057698  9.133454
 Li 11.469254 12.028872  9.129891
 Li  8.461033  9.381464  9.102886
 Li  9.207270 11.590112  7.468082
 Li  9.982599  7.617170  7.475118
 Li 13.006574 10.266171  7.470569
 Li 15.281795 10.702247  9.128123
 Li 10.753371  9.826903 10.789774
 Li 16.867033  8.859326 12.279321
 Li 11.460441 -0.321747 12.371474
 Li 13.017775 10.297968 12.529692
 Li 13.747236 12.449423 10.791526
 Li 14.510624  8.519507 10.784237
 Li 17.532479 11.140537 10.740288
 Li 19.721921 11.568701 12.289193
 Li 12.264910  1.852881  0.761349
 Li 17.561235  4.997107  2.543967
 Li 14.521839  2.325874  2.503915
 Li 15.254979  4.575908  0.919313
 Li 19.032531  3.289219  1.005143
 Li 21.393137  3.634766  2.502642
 Li 16.815410  2.773751  4.188673
 Li 22.128774  5.857823  5.822477
 Li 19.103809  3.210871  5.825599
 Li 19.865303  5.412702  4.185721
 Li  2.398564  4.097625  4.157521
 Li  4.665733  4.539334  5.813015
 Li 21.379780  3.647975  7.470251
 Li  5.411029  6.743069  9.099080
 Li  2.400981  4.084343  9.127792
 Li  3.145980  6.299349  7.466036
 Li  6.953735  4.972248  7.468101
 Li  9.215495  5.410743  9.129859
 Li  4.651716  4.523160 10.740224
 Li 10.022873  7.575662 12.378852
 Li  6.841392  4.951378 12.289496
 Li  7.717229  7.155420 10.745948
 Li 11.493628  5.831226 10.791403
 Li 13.714018  6.295894 12.371448
 Li 18.374807  1.010989  2.545783
 Li 16.181038  0.584210  1.005901
 Li  1.641410  1.891272  5.816797
 Li 20.621148  1.453863  4.159681
 Li  6.207510  2.763534  9.102862
 Li  3.918080  2.327918  7.463245
 Li 10.764031  3.680059 12.529664
 Li  8.499945  3.209041 10.789634
 Li 16.775347  8.943511  2.503940
 Li 16.036866 12.940425  2.500083
 Li 13.821567 12.473888  0.911102
 Li 14.518199  8.470531  0.761359
 Li 17.508365 11.193634  0.919391
 Li 19.815062 11.615275  2.544115
 Li 21.357352  9.829078  5.825660
 Li 16.069143  0.565925  5.820458
 Li 13.807253  0.126636  4.160058
 Li 19.068931  9.391745  4.188826
 Li 22.118825 12.030560  4.185878
 Li 24.382590 12.476018  5.822498
 Li  4.654372 10.702134  9.127964
 Li 20.622980  1.439937  9.133365
 Li 18.356238  0.999372  7.474852
 Li 23.633576 10.265971  7.470461
 Li  5.399563 12.917494  7.466069
 Li  3.157240  0.125291  9.098851
 Li  9.094970 11.568859 12.289551
 Li  3.986285  2.241331 12.279279
 Li  1.630316  1.901457 10.784222
 Li  6.905281 11.140905 10.740095
 Li  5.463542  0.537564 10.746177
 Li  7.769289  0.957651 12.378951
 Li 11.568237  5.855831  0.911245
 Li 13.783462  6.322707  2.500296
 Li 16.061094  6.744559  4.159979
 Li 18.322610  7.184018  5.820765
 Li 20.609716  7.617353  7.475133
 Li 22.876574  8.057767  9.133318
 Li  3.884013  8.519560 10.784220
 Li  6.239884  8.859597 12.279137
 Li  0.843443 -0.437923 16.089039
 Li  3.001368  0.236089 14.016118
 Li  0.506796 -0.699890 19.402759
 Li  2.779846  0.480868 17.880999
 Li  0.405967 -0.676069 23.016697
 Li  2.514063  0.468741 21.275949
 Li  0.444239 -0.679579 26.439486
 Li  2.580037  0.447728 24.697532
 Li  0.275721 -1.077866 29.238449
 Li  2.649655  0.578940 28.221090
 Li  1.571961  2.520914 15.940422
 Li  3.216365  4.049869 14.103459
 Li  1.618133  2.651879 19.441309
 Li  3.723883  3.729284 17.625679
 Li  1.532615  2.695098 23.004806
 Li  3.691959  3.768348 21.268082
 Li  1.566963  2.671269 26.382209
 Li  3.760699  3.720533 24.707160
 Li  1.591914  2.773099 30.044024
 Li  3.858669  3.371777 28.077729
 Li  3.096742  6.180183 16.088898
 Li  5.254959  6.854095 14.015993
 Li  2.760281  5.918024 19.402530
 Li  5.033285  7.098803 17.880854
 Li  2.659499  5.941771 23.016638
 Li  4.767508  7.086583 21.275879
 Li  2.697880  5.938278 26.439272
 Li  4.833614  7.065687 24.697510
 Li  2.529295  5.540154 29.238248
 Li  4.903288  7.196780 28.221061
 Li  3.825224  9.138800 15.940290
 Li  5.469986 10.667657 14.103447
 Li  3.871563  9.269720 19.441283
 Li  5.977279 10.347104 17.625589
 Li  3.786173  9.313023 23.004863
 Li  5.945408 10.386300 21.268168
 Li  3.820430  9.289171 26.382253
 Li  6.014241 10.338529 24.707241
 Li  3.845369  9.390695 30.043956
 Li  6.112204  9.989591 28.077830
 Li  4.712758  1.528119 15.938155
 Li  6.432308  2.750589 14.024164
 Li  4.771974  1.581195 19.563508
 Li  6.778982  2.792190 17.888202
 Li  4.710754  1.508370 22.894283
 Li  6.922164  2.684333 21.273166
 Li  4.834927  1.422322 26.275479
 Li  6.854287  2.623583 24.613085
 Li  5.149668  1.495559 30.148364
 Li  6.895334  2.674733 28.227772
 Li  5.934175  4.846060 15.935288
 Li  8.603459  5.841746 14.110000
 Li  5.816121  4.902044 19.549458
 Li  8.031725  5.949591 17.698239
 Li  5.868027  4.881968 22.951874
 Li  8.025435  5.929916 21.209977
 Li  5.845505  4.880757 26.488524
 Li  8.059311  5.913298 24.628311
 Li  5.259897  4.994214 30.055706
 Li  7.938559  6.014640 28.234382
 Li  6.966237  8.145956 15.937997
 Li  8.686162  9.368532 14.023891
 Li  7.025410  8.199191 19.563547
 Li  9.032528  9.410051 17.888095
 Li  6.964262  8.126292 22.894290
 Li  9.175648  9.302275 21.273201
 Li  7.088543  8.040301 26.275495
 Li  9.107759  9.241647 24.613110
 Li  7.403450  8.113377 30.148445
 Li  9.148813  9.292622 28.227859
 Li  8.187836 11.463876 15.935323
 Li 10.857077 12.459718 14.110108
 Li  8.069604 11.519866 19.549436
 Li  5.778098 -0.668415 17.698139
 Li  8.121469 11.499952 22.951844
 Li  5.771741 -0.687960 21.210040
 Li  8.099075 11.498766 26.488711
 Li  5.805672 -0.704648 24.628382
 Li  7.513478 11.612011 30.055608
 Li  5.685069 -0.603194 28.234456
 Li  7.751686  0.847591 16.091459
 Li 10.015816  1.458706 14.124063
 Li  7.882977  0.487173 19.453427
 Li 10.070604  1.532804 17.768216
 Li  7.933045  0.428807 22.907140
 Li 10.102926  1.498075 21.172875
 Li  7.901216  0.474815 26.541698
 Li 10.010490  1.546044 24.734546
 Li  8.407324  0.203230 30.053452
 Li 10.070378  1.690692 28.210835
 Li  8.966655  3.644320 15.953388
 Li 11.347051  5.300113 14.943385
 Li  9.053017  3.742104 19.466544
 Li 11.190647  4.876017 17.730718
 Li  9.113111  3.722291 22.897801
 Li 11.220941  4.870559 21.160985
 Li  8.842203  3.727041 26.305677
 Li 11.118150  4.893849 24.767857
 Li  8.596734  4.004661 30.138087
 Li 10.790007  4.654748 28.077486
 Li 10.005304  7.465433 16.091474
 Li 12.269253  8.076543 14.124095
 Li 10.136665  7.105197 19.453352
 Li 12.324282  8.150868 17.768181
 Li 10.186679  7.046815 22.907160
 Li 12.356515  8.116033 21.172987
 Li 10.154824  7.092944 26.541569
 Li 12.264051  8.164153 24.734678
 Li 10.660911  6.821316 30.053536
 Li 12.324050  8.308572 28.211092
 Li 11.220249 10.262178 15.953355
 Li 13.600503 11.918058 14.943332
 Li 11.306412 10.360076 19.466599
 Li 13.444127 11.493890 17.730724
 Li 11.366584 10.340267 22.897860
 Li 13.474517 11.488453 21.160954
 Li 11.095741 10.345004 26.305901
 Li 13.371698 11.511777 24.767937
 Li 10.849878 10.622657 30.138072
 Li 13.043670 11.272461 28.077418
 Li 11.470482 -0.437835 16.088927
 Li 13.628891  0.235771 14.016143
 Li 11.133688 -0.699903 19.402762
 Li 13.406952  0.480937 17.880971
 Li 11.032927 -0.676150 23.016644
 Li 13.141095  0.468708 21.275879
 Li 11.071441 -0.679519 26.439252
 Li 13.207051  0.447919 24.697420
 Li 10.903060 -1.077756 29.238266
 Li 13.276866  0.578945 28.220987
 Li 12.199135  2.520855 15.940260
 Li 13.843859  4.049486 14.103271
 Li 12.245095  2.652010 19.441372
 Li 14.350899  3.729377 17.625572
 Li 12.159630  2.694993 23.004793
 Li 14.318849  3.768467 21.268393
 Li 12.194160  2.671389 26.382156
 Li 14.387828  3.720486 24.707138
 Li 12.219115  2.773047 30.043857
 Li 14.485943  3.371857 28.077521
 Li 13.724142  6.180168 16.088769
 Li 15.882421  6.853599 14.016204
 Li 13.387073  5.918096 19.402812
 Li 15.660521  7.098688 17.881030
 Li 13.286459  5.941915 23.016762
 Li 15.394591  7.086612 21.275914
 Li 13.324976  5.938363 26.439309
 Li 15.460666  7.065768 24.697486
 Li 13.156570  5.540150 29.238318
 Li 15.530583  7.196801 28.220892
 Li 14.452648  9.138833 15.940131
 Li 16.097382 10.667574 14.103431
 Li 14.498722  9.269886 19.441401
 Li 16.604337 10.347081 17.625585
 Li 14.413198  9.312936 23.005003
 Li 16.572472 10.386183 21.268325
 Li 14.447889  9.289252 26.382268
 Li 16.641464 10.338470 24.707151
 Li 14.472625  9.390670 30.043715
 Li 16.739522  9.989630 28.077674
 Li 15.339698  1.528117 15.937960
 Li 17.059594  2.750292 14.024015
 Li 15.398894  1.581388 19.563775
 Li 17.406156  2.792168 17.888242
 Li 15.337894  1.508313 22.894242
 Li 17.549165  2.684498 21.273271
 Li 15.462145  1.422286 26.275414
 Li 17.481492  2.623501 24.612989
 Li 15.776661  1.495169 30.148565
 Li 17.522349  2.674795 28.227866
 Li 16.561412  4.845895 15.935146
 Li 19.230629  5.841594 14.109832
 Li 16.443016  4.901939 19.549677
 Li 18.658645  5.949459 17.698264
 Li 16.495130  4.882075 22.952021
 Li 18.652393  5.929721 21.209913
 Li 16.472792  4.880834 26.488091
 Li 18.686664  5.913158 24.628261
 Li 15.887363  4.994167 30.055555
 Li 18.565760  6.014400 28.234513
 Li 17.593208  8.145906 15.938006
 Li 19.313035  9.368173 14.023937
 Li 17.652526  8.199029 19.563661
 Li 19.659641  9.410055 17.888152
 Li 17.591388  8.126204 22.894268
 Li 19.802818  9.302424 21.273209
 Li 17.715763  8.040219 26.275376
 Li 19.734994  9.241481 24.612989
 Li 18.030640  8.113367 30.148600
 Li 19.776046  9.292605 28.228006
 Li 18.814895 11.463806 15.935084
 Li 21.484068 12.459276 14.109575
 Li 18.696516 11.519757 19.549488
 Li 16.405078 -0.668343 17.698400
 Li 18.748722 11.500031 22.951997
 Li 16.398782 -0.688143 21.209821
 Li 18.726365 11.498806 26.488248
 Li 16.433166 -0.704578 24.628231
 Li 18.140660 11.612000 30.055686
 Li 16.312210 -0.603564 28.234378
 Li 18.378540  0.847193 16.091323
 Li 20.642823  1.458852 14.124420
 Li 18.510156  0.487332 19.453462
 Li 20.697687  1.532781 17.768036
 Li 18.560266  0.428861 22.906910
 Li 20.730156  1.498079 21.172914
 Li 18.528393  0.474912 26.541671
 Li 20.637611  1.546083 24.734402
 Li 19.034043  0.203072 30.053512
 Li 20.697387  1.690676 28.210997
 Li 19.593705  3.644377 15.953469
 Li 21.973915  5.300081 14.943461
 Li 19.680037  3.742057 19.466612
 Li 21.817654  4.875908 17.730816
 Li 19.740372  3.722363 22.897678
 Li 21.848343  4.870532 21.160680
 Li 19.469328  3.726839 26.305680
 Li 21.745328  4.893811 24.767922
 Li 19.223852  4.004742 30.138160
 Li 21.417189  4.654507 28.077501
 Li 20.632166  7.465371 16.091386
 Li 22.896092  8.076730 14.123966
 Li 20.763630  7.105157 19.453346
 Li 22.951087  8.150676 17.768102
 Li 20.813735  7.046686 22.906949
 Li 22.983708  8.115975 21.172846
 Li 20.781976  7.092783 26.541604
 Li 22.891088  8.164081 24.734390
 Li 21.287914  6.821032 30.053855
 Li 22.950870  8.308549 28.211120
 Li 21.847209 10.262254 15.953375
 Li 24.227543 11.917852 14.943300
 Li 21.933595 10.359943 19.466555
 Li 24.071353 11.494031 17.730845
 Li 21.993949 10.340368 22.897604
 Li 24.101909 11.488406 21.160661
 Li 21.722949 10.344851 26.305666
 Li 23.998898 11.511816 24.767911
 Li 21.477232 10.622464 30.138276
 Li 23.670760 11.272347 28.077432
  S 12.217734  8.084645  1.649245
  S  9.262727  5.419269  1.724912
  S 16.794531  8.948139  4.991987
  S 13.774584  6.308421  4.976180
  S 21.362319  9.825403  8.298431
  S 18.324933  7.175669  8.286709
  S  4.689279 10.687740 11.636408
  S 22.885362  8.076768 11.621818
  S  6.172678  2.792923  1.732277
  S 10.752506  3.652840  4.993605
  S 15.297292  4.528685  8.281485
  S 19.810037  5.415242 11.638060
  S 11.516349 12.036896  1.725151
  S  3.214071  0.117812  1.654487
  S  9.963983  1.466646  1.649158
  S 16.027880 12.926427  4.975706
  S  7.723577  1.009795  5.004380
  S 14.541499  2.330609  4.992302
  S 16.071891  0.557947  8.286669
  S 12.266158  1.886356  8.293142
  S 19.108314  3.207207  8.298897
  S 20.632410  1.459162 11.621622
  S 16.848670  2.741299 11.564382
  S  2.435774  4.069715 11.636081
  S  5.467531  6.736239  1.654739
  S  4.646740 10.693748  1.671704
  S 22.844320  8.084796  1.648842
  S  8.426329  9.410646  1.732462
  S  9.976877  7.627140  5.005299
  S  9.203772 11.598960  5.001013
  S  6.168122  8.948439  4.992399
  S 13.005963 10.270994  4.993360
  S 14.519656  8.504192  8.293190
  S 13.754128 12.467301  8.314284
  S 10.734848  9.825663  8.298669
  S 17.550622 11.146746  8.281613
  S 19.102510  9.358508 11.564089
  S 13.762954  0.114674 11.555910
  S 15.316511 10.687752 11.636022
  S 22.063180 12.033254 11.638380
  S 19.890131  5.419249  1.725143
  S 16.799643  2.793041  1.732073
  S  2.393315  4.075604  1.671847
  S  3.147743  6.308224  4.976716
  S 21.379659  3.653051  4.993817
  S  6.950532  4.980870  5.000917
  S  7.698484  7.176282  8.286655
  S  4.669988  4.528705  8.281062
  S 11.500889  5.849620  8.313959
  S 12.259182  8.076978 11.622035
  S  9.183138  5.415406 11.638975
  S 16.016085  6.732248 11.556153
  S 20.590862  1.466478  1.649274
  S  3.914451  2.330417  4.992517
  S  8.481391  3.208131  8.298968
  S 13.062983  4.069894 11.635953
  S 19.053419  9.410623  1.732061
  S 13.840976  0.118277  1.654605
  S 15.273829 10.694495  1.671311
  S 22.143386 12.036713  1.724964
  S 23.633643 10.270847  4.993780
  S 18.350770  1.009843  5.005043
  S 19.831524 11.599064  5.000911
  S  5.401293 12.925967  4.976825
  S  6.923475 11.146677  8.281315
  S  1.638968  1.886604  8.293466
  S 24.381758 12.467712  8.314293
  S  5.444858  0.558290  8.286507
  S 11.436553 12.033402 11.638909
  S  6.221884  2.741202 11.564041
  S  3.135508  0.114846 11.556264
  S 10.005424  1.459041 11.622105
  S 13.019987  4.076652  1.671006
  S 16.094534  6.736260  1.654947
  S 17.577527  4.980992  5.000964
  S 20.604928  7.626027  5.006251
  S 22.128104  5.849487  8.314262
  S  3.892742  8.504724  8.293189
  S  5.389145  6.732455 11.556151
  S  8.475489  9.359319 11.564058
