336
Lattice="16.456827  0.010436 -0.000622  8.140202 14.336333  0.020402 -0.001111  0.048960 33.717048" 
 Li 13.939475  1.614728 11.375251
 Li  5.731199  6.661944 11.680336
 Li  9.799354 13.787738 11.685168
 Li 20.117209 12.348631 13.344088
 Li 18.039924 13.735485 11.685466
 Li 22.116034 13.439879 11.780128
 Li 20.027641 10.001717 11.968569
 Li  5.618192  8.883382 13.274480
 Li  7.774039 12.500385 13.256683
 Li 21.963212 11.207560 15.077620
 Li  7.580180 10.073168 11.739193
 Li  5.581467  6.562105 14.350890
 Li 18.169704 13.537066 14.272935
 Li  7.634910 10.138954 14.336402
 Li 12.097063  2.984108 16.877154
 Li  9.867999  3.959850 15.102104
 Li 13.988359  4.090496 15.242675
 Li 11.935986  0.674414 15.259602
 Li 22.158481 13.788615 16.932855
 Li 15.917410  2.984779 16.886420
 Li  7.731593  5.250870 13.380725
 Li 16.204972 10.165248 16.897035
 Li 13.947851 11.103731 15.082067
 Li 18.065504 11.193119 15.186123
 Li 16.059543  7.885558 15.281423
 Li 18.087987  6.638523 16.905176
 Li 19.975193 10.162646 16.881476
 Li 11.844885 12.379644 13.361963
 Li 14.068545  6.361987 16.928270
 Li  9.718916  6.569431 16.902984
 Li 11.784157 10.215630 16.816447
 Li 11.932042  7.817606 15.016996
 Li  9.948635  8.932310 13.655252
 Li  7.929068 10.095199 16.962418
 Li  9.898495 11.260558 15.291713
 Li  7.797061  7.685563 15.278028
 Li  9.863090  6.363777 14.339925
 Li 13.936934 13.529126 14.363881
 Li 14.178096  6.583435 14.396372
 Li 13.990973 11.235529 17.701496
 Li 11.938047  7.741061 17.609930
 Li 14.031030  1.829922 18.467500
 Li 18.108510  8.993827 18.465508
 Li 11.962575  7.579025 20.279288
 Li  9.796455  9.032360 18.493595
 Li 14.130836  8.818011 18.513311
 Li 12.063529  5.241317 18.570999
 Li 13.943306  4.152592 20.071178
 Li 16.062840  7.732364 20.071440
 Li 13.885700  6.467365 21.881304
 Li 15.950913  5.318904 18.416609
 Li 14.054955  1.764700 21.067504
 Li  9.897976  8.919714 21.075321
 Li 16.085144  5.338280 21.076084
 Li 12.084712 12.543517 23.644375
 Li  9.872752 13.572687 21.839352
 Li 13.987279 13.660660 22.047695
 Li 11.942742 10.238835 22.009926
 Li 14.022939  9.047651 23.706188
 Li 15.939421 12.553689 23.638950
 Li 16.096841  0.431810 20.141773
 Li  8.003272  5.379308 23.635227
 Li  5.804446  6.410099 21.839579
 Li  9.917180  6.494747 22.048512
 Li  7.873711  3.069283 21.999369
 Li  9.957249  1.868638 23.699697
 Li 11.879786  5.379840 23.632038
 Li 20.165438  7.595092 20.147680
 Li  5.921835  1.641400 23.639599
 Li  1.592716  1.854484 23.638773
 Li  3.663885  5.431300 23.562668
 Li  3.755463  3.093417 21.860010
 Li 18.283964  4.205633 20.265854
 Li 16.221984  5.343681 23.738359
 Li 18.224799  6.528932 22.076551
 Li 16.119847  2.940973 22.075222
 Li  1.707873  1.710389 21.033044
 Li  5.771469  8.883391 21.034913
 Li  5.824281  1.752283 21.067794
 Li  5.800156  6.606484 24.448331
 Li  3.794962  2.939235 24.519044
 Li 14.039637 11.433192 25.222525
 Li  9.968848  4.265452 25.204251
 Li  3.782104  2.882839 27.107414
 Li 18.124835  4.328933 25.254826
 Li  5.998985  4.117013 25.229198
 Li  3.932574  0.458333 25.322197
 Li 13.971385 13.739266 26.854110
 Li  7.884879  2.958873 26.825093
 Li  5.773617  1.736865 28.456687
 Li  7.781994  0.570651 25.168752
 Li 14.218965 11.281454 27.799759
 Li 18.083574  4.308231 27.871282
 Li  8.104566  0.507321 27.811906
 Li 20.207937  7.842121 30.134609
 Li 18.199477  8.894050 28.705703
 Li  5.834252  8.933050 28.866164
 Li  3.789159  5.440030 28.768289
 Li  5.875278  4.387262 30.354696
 Li  7.791822  7.750509 30.085399
 Li 16.146062  9.977553 26.934681
 Li 16.302161  0.594789 29.983674
 Li 14.114503  1.654883 28.449739
 Li  1.786614  1.803449 28.782916
 Li  7.808322 12.561750 28.777826
 Li  9.959422 11.547860 30.360271
 Li  3.734095  0.580464 30.023300
 Li 12.052084  2.859867 26.944006
 Li 22.278423 11.260545 30.455890
 Li 18.218795 11.141821 30.439464
 Li 11.989916  0.577474 30.094503
 Li 20.237728 12.626673 28.833887
 Li 18.376319 13.815558 27.091675
 Li  8.168294  0.603796 30.402831
 Li 10.109302  1.807017 28.876768
 Li 16.126604 12.534241 28.957017
 Li 18.192227 11.367578 27.855774
 Li 14.151446  4.172443 27.803288
 Li 22.075210 11.262285 27.753756
 Li 14.175735  1.894626 30.753953
 Li  9.843556  8.778648 11.376235
 Li  5.770335  1.615168 11.396219
 Li 16.013086  5.214389 13.319686
 Li 13.977537  6.580872 11.697177
 Li 18.034206  6.700052 11.707971
 Li 16.125380  2.932628 12.034660
 Li  1.549681  1.694010 13.253164
 Li  3.671010  5.305089 13.196300
 Li 17.874032  4.032256 15.062891
 Li  3.490400  2.895974 11.730592
 Li 13.997562  1.854120 13.680140
 Li  9.873964  1.694853 13.346542
 Li 11.988083  5.270243 13.377549
 Li 11.812267  2.912851 12.141704
 Li  9.841034  6.284470 11.792156
 Li  7.920793  2.915588 12.114846
 Li 16.059780  0.655281 15.185111
 Li 18.055053  8.950499 13.442030
 Li 13.966397  8.900507 13.289925
 Li 16.008239 12.392439 13.385679
 Li 16.045954  9.999720 12.016333
 Li 13.922958 13.444039 11.799296
 Li 12.008364 10.081383 12.070103
 Li 20.102324  7.867947 15.208452
 Li 18.054942  6.474676 14.290589
 Li 22.105210 13.667615 14.341230
 Li 18.141116  4.173027 17.646816
 Li  9.848970 13.716551 14.410925
 Li  3.549222  2.997922 14.321511
 Li 18.126922 13.523118 16.892014
 Li 13.795261 13.725850 16.923674
 Li  7.719548  3.046744 16.807023
 Li  7.877255  0.621970 15.024647
 Li  5.878777  1.759580 13.672697
 Li  3.870153  2.934547 16.961747
 Li  5.823291  4.100726 15.289221
 Li  3.772253  0.541995 15.301615
 Li  9.829251 13.576301 16.945458
 Li  5.755276  6.407481 16.924978
 Li  9.901874  4.089027 17.729147
 Li 22.190536 11.282669 17.671717
 Li  7.858565  0.563529 17.614270
 Li  7.893385  0.413322 20.270578
 Li  5.729612  1.864510 18.492237
 Li 10.060942  1.648023 18.491432
 Li 16.129187 12.407255 18.586627
 Li 18.018106 11.321118 20.076388
 Li 11.989208  0.571213 20.058859
 Li 17.959724 13.641999 21.887235
 Li 20.018593 12.501779 18.410892
 Li 13.990571 11.429197 20.310699
 Li  9.871932 11.348935 20.103181
 Li  3.777648  0.438066 20.128665
 Li 11.790317 12.461770 18.517408
 Li  1.690810  1.638334 18.428958
 Li  7.914869 12.460749 18.515532
 Li 16.079676 10.248450 22.000445
 Li  9.920565  4.268694 20.311430
 Li  5.804114  4.180862 20.100909
 Li  7.849573  7.606008 20.139517
 Li  7.708649  5.297988 18.504968
 Li  5.765773  8.792998 18.440798
 Li  3.854447  5.287220 18.510125
 Li 12.004309  3.076947 21.988296
 Li  9.939776  1.788971 21.093579
 Li 14.016036  8.951831 21.113236
 Li 18.108170 13.686417 24.509012
 Li 18.126418  8.927153 21.073269
 Li 20.158688 12.508275 21.072408
 Li  9.992935  8.813906 23.656504
 Li  5.659728  9.022218 23.636412
 Li  7.727416 12.596460 23.580842
 Li  7.828196 10.262437 21.871472
 Li 22.357946 11.379067 20.274655
 Li 20.292918 12.528799 23.734710
 Li 22.298820 13.699252 22.080454
 Li 20.184289 10.115607 22.080294
 Li 18.137593  8.855900 23.682309
 Li 14.072871  1.680249 23.664176
 Li  9.891669 13.748686 24.419332
 Li 14.055371  6.579178 24.496011
 Li  7.848678 10.094070 24.546614
 Li  7.865602 10.020652 27.138569
 Li 22.179597 11.490177 25.223349
 Li 10.071105 11.271887 25.249576
 Li  8.011213  7.621802 25.334771
 Li  9.898931  6.578932 26.861208
 Li 11.999138 10.154692 26.868171
 Li  9.848571  8.903767 28.494000
 Li 11.857646  7.745264 25.184461
 Li  5.848119  6.732975 27.071090
 Li 18.186334  6.654561 26.964954
 Li 20.193261  9.960751 26.870069
 Li 20.042039  7.682970 25.250594
 Li 18.160006 11.212455 25.242756
 Li 16.278007  7.681766 25.266404
 Li  7.952965  5.455514 28.790877
 Li  9.925840 13.878605 27.048395
 Li 22.259307 13.757259 26.912823
 Li 16.179037  2.834015 26.866415
 Li 16.008293  0.525520 25.252121
 Li 14.089483  4.061010 25.213715
 Li 12.189200  0.527929 25.247421
 Li 12.065766 12.588402 28.766370
 Li  9.936455 11.474918 27.813187
 Li  5.863468  4.305935 27.791288
 Li  9.958066  9.053399 30.773539
 Li  9.945220  4.122539 27.738796
 Li 12.163937  7.701236 27.806361
 Li 18.214618  4.107726 30.461963
 Li 14.141321  4.406164 30.366513
 Li 16.226523  7.845747 30.178668
 Li 16.137798  5.494663 28.806501
 Li 14.294084  6.640013 27.078947
 Li 12.220716  7.763852 30.407199
 Li 14.177787  8.954426 28.871103
 Li 12.027596  5.337449 28.889922
 Li 10.000876  4.050229 30.462615
 Li 14.065953 11.173312 30.466413
 Li  5.887752  1.879679 30.732795
  P 12.020358  0.482886 12.619638
  P  7.720404 12.430930 15.860729
  P  7.855197  7.751947 12.638990
  P  7.746449  0.489123 12.521271
  P 11.919319 12.508053 15.915013
  P  7.848667  5.340032 15.920760
  P 11.811189  7.663525 12.508948
  P 11.868827  5.441641 16.006140
  P 11.991363  9.999062 19.375769
  P 16.018737  7.677777 22.660020
  P 16.143022  2.989763 19.493074
  P  7.767623 10.063708 19.420735
  P 20.256332  7.756392 22.701276
  P 16.191606  0.583615 22.701447
  P  3.696811  2.890956 19.415359
  P  3.725195  0.676641 22.763363
  P  3.870866  5.244937 26.125217
  P  7.886678  2.935351 29.483898
  P 16.160137 12.600074 26.271702
  P 16.094813  5.304260 26.224730
  P 12.167480  2.999425 29.613640
  P 16.137102 10.206096 29.476954
  P 20.172118 12.486734 26.219763
  P 20.263575 10.222961 29.407879
  P 20.156536 12.540880 15.924427
  P  3.771359  0.562083 12.642986
  P 15.948395  0.512910 12.510333
  P 15.992160  7.618185 12.745648
  P 20.115476  7.641438 12.662785
  P  3.635876  5.241285 15.879754
  P 16.075052  5.361815 15.933044
  P 15.923532 12.596650 16.027837
  P 12.020066  7.782049 22.728567
  P 20.219448 10.166022 19.492595
  P 15.991391 10.090508 19.445474
  P  7.928544  2.831374 19.364994
  P 11.914800  2.928982 19.429418
  P 11.954987  0.521237 22.641232
  P  7.951524  0.617630 22.715518
  P  7.799799  7.845219 22.775670
  P  3.912013  3.005261 29.611757
  P 12.078906  5.413171 26.287999
  P  7.879789  5.329483 26.238707
  P  7.921023 12.399462 26.150082
  P 11.946186 12.500951 26.225487
  P 11.943984 10.084895 29.506812
  P  7.988556 10.167132 29.647186
  P 16.095408  3.023996 29.507174
  S 18.049441 11.345573 12.643737
  S  5.806005  8.929845 15.944330
  S  9.764017 11.154709 12.482463
  S 22.190354 11.225646 12.637345
  S  9.855892  4.126595 12.697492
  S 13.957299 11.271413 12.655577
  S 13.881833  8.849631 16.088356
  S  9.868271  8.879289 16.019151
  S  9.946590  6.553520 19.333699
  S 14.106527  4.179425 22.721315
  S 18.061748  6.482484 19.413289
  S 14.017797  6.521014 19.399580
  S  9.850474 13.706262 19.388190
  S  5.780691  6.537798 19.384138
  S  5.776283  4.117375 22.799106
  S 18.159372  4.160180 22.755558
  S  1.842128  1.812856 26.069681
  S 14.114475 13.877972 29.659782
  S  9.929304  1.778083 26.225914
  S  5.841134  1.802033 26.099745
  S 18.152166  8.945504 26.127648
  S 14.085299  1.788937 26.102488
  S 22.285604 13.836706 29.688111
  S 18.128389 13.756546 29.519442
  S  5.680525  3.956238 12.493917
  S 18.126641  4.089561 12.636627
  S 13.967220  4.006578 12.464262
  S  1.728160  1.724257 15.901130
  S 14.021812  1.725907 16.028201
  S 18.097555  8.904831 16.020887
  S  9.822531  1.691311 16.060763
  S  5.811686  1.704323 16.029907
  S 22.134739 13.658997 19.424372
  S 18.086449 13.691831 19.396886
  S 14.015006 13.724043 19.352875
  S 18.178794 11.358085 22.733969
  S 14.013480 11.305227 22.763628
  S  9.942351  4.139579 22.760874
  S  9.845134 11.291241 22.818229
  S 22.227298 11.329929 22.751762
  S 13.985993  8.905208 26.199693
  S  9.925082  8.961544 26.129278
  S  5.920535  8.989657 26.063037
  S 10.036520  6.679246 29.666564
  S  5.841573  6.560148 29.499818
  S  9.941883 13.705079 29.453113
  S 18.204283  6.498762 29.504566
  S 14.070920  6.623428 29.515538
